omf/solvers/opendss/ieee8500-unbal_ours.glm
object node {
	name HVMV_Sub_48332;
	phases ABC;
	latitude 12277577.7570982;
	longitude 1693886.0;
};

object node {
	name _HVMV_Sub_LSB;
	phases ABC;
	latitude 12277577.7570982;
	longitude 1693852.0;
};

object node {
	name regxfmr_HVMV_Sub_LSB;
	phases ABC;
	latitude 12277577.7570982;
	longitude 1693840.0;
};

object node {
	name HVMV_Sub_HSB;
	phases ABC;
	latitude 12277577.7570982;
	longitude 1693810.0;
};

object node {
	name SourceBus;
	phases ABC;
	latitude 12277577.7570982;
	longitude 1693780.0;
};

object node {
	name M1047751;
	phases ABC;
	latitude 12288000.0004359;
	longitude 1670806.28884553;
};

object node {
	name M1027011;
	phases ABC;
	latitude 12291968.2830636;
	longitude 1664903.58829604;
};

object node {
	name L3254214;
	phases ABC;
	latitude 12276552.8477852;
	longitude 1669026.71201188;
};

object node {
	name M1089203;
	phases ABC;
	latitude 12283289.3710555;
	longitude 1676956.55163526;
};

object node {
	name M1089103;
	phases ABC;
	latitude 12267225.7396805;
	longitude 1677900.67144414;
};

object node {
	name L3142078;
	phases ABC;
	latitude 12257810.0391917;
	longitude 1680082.43042217;
};

object node {
	name L3251830;
	phases ABC;
	latitude 12274047.6563589;
	longitude 1668748.68781962;
};

object node {
	name L2710516;
	phases ABC;
	latitude 12289282.6710291;
	longitude 1664363.24807153;
};

object node {
	name M3772794;
	phases ABC;
	latitude 12284492.2843366;
	longitude 1668007.97537093;
};

object node {
	name M1026931;
	phases ABC;
	latitude 12286482.9485305;
	longitude 1666365.8111454;
};

object node {
	name L3048937;
	phases ABC;
	latitude 12287268.6309632;
	longitude 1685785.59023548;
};

object node {
	name M1069524;
	phases ABC;
	latitude 12285163.0452972;
	longitude 1672643.49230324;
};

object node {
	name M1069424;
	phases ABC;
	latitude 12276991.3000096;
	longitude 1673946.92961646;
};

object node {
	name M1026331;
	phases ABC;
	latitude 12260276.83881;
	longitude 1666972.51066596;
};

object node {
	name M1069224;
	phases ABC;
	latitude 12271064.7812201;
	longitude 1674133.53928063;
};

object node {
	name M1027014;
	phases ABC;
	latitude 12292390.351288;
	longitude 1666525.80090555;
};

object node {
	name L3101787;
	phases ABC;
	latitude 12294990.3200584;
	longitude 1664142.92832733;
};

object node {
	name L2801949;
	phases ABC;
	latitude 12292567.2452401;
	longitude 1662686.80851797;
};

object node {
	name L2711226;
	phases ABC;
	latitude 12274361.0249352;
	longitude 1684660.78357844;
};

object node {
	name M1027042;
	phases ABC;
	latitude 12293054.1244726;
	longitude 1664941.36160807;
};

object node {
	name L2898522;
	phases ABC;
	latitude 12275309.978024;
	longitude 1687545.05161312;
};

object node {
	name L2991911;
	phases ABC;
	latitude 12268742.3615059;
	longitude 1675969.41153834;
};

object node {
	name L2710514;
	phases ABC;
	latitude 12289152.8114449;
	longitude 1670479.08807723;
};

object node {
	name L2731712;
	phases ABC;
	latitude 12292771.2219443;
	longitude 1664457.12839162;
};

object node {
	name M1069496;
	phases ABC;
	latitude 12283475.9889117;
	longitude 1675435.03918584;
};

object node {
	name M1125966;
	phases ABC;
	latitude 12277876.5275304;
	longitude 1681830.5827438;
};

object node {
	name M1026662;
	phases ABC;
	latitude 12276922.2455455;
	longitude 1663670.99539889;
};

object node {
	name M1069551;
	phases ABC;
	latitude 12285947.740594;
	longitude 1674544.69166502;
};

object node {
	name M1009650;
	phases ABC;
	latitude 12276225.3316249;
	longitude 1662888.25389416;
};

object node {
	name M1125994;
	phases ABC;
	latitude 12279248.5114037;
	longitude 1681693.19061567;
};

object node {
	name L3649304;
	phases ABC;
	latitude 12285305.7786094;
	longitude 1668012.62023493;
};

object node {
	name L3010563;
	phases ABC;
	latitude 12280100.1681085;
	longitude 1662845.11891812;
};

object node {
	name M1069420;
	phases ABC;
	latitude 12276405.6703131;
	longitude 1673792.57185632;
};

object node {
	name L3179699;
	phases ABC;
	latitude 12266361.8605117;
	longitude 1680608.49199066;
};

object node {
	name L3198348;
	phases ABC;
	latitude 12275830.0799125;
	longitude 1685872.53602757;
};

object node {
	name L3141398;
	phases ABC;
	latitude 12274484.7937673;
	longitude 1667627.36685857;
};

object node {
	name N1137999;
	phases ABC;
	latitude 12284146.8973283;
	longitude 1665654.83156074;
};

object node {
	name L3120534;
	phases ABC;
	latitude 12282271.6829905;
	longitude 1682829.67496873;
};

object node {
	name L3215203;
	phases ABC;
	latitude 12279452.3488439;
	longitude 1679305.50114145;
};

object node {
	name M1209750;
	phases ABC;
	latitude 12273067.540902;
	longitude 1691988.22038526;
};

object node {
	name L2673307;
	phases ABC;
	latitude 12277198.9794978;
	longitude 1677027.62133133;
};

object node {
	name L2898495;
	phases ABC;
	latitude 12279294.2391478;
	longitude 1680444.59874251;
};

object node {
	name L2692654;
	phases ABC;
	latitude 12273383.6906623;
	longitude 1683215.62876109;
};

object node {
	name L2973150;
	phases ABC;
	latitude 12286491.8204665;
	longitude 1671837.56334249;
};

object node {
	name L3085391;
	phases ABC;
	latitude 12274578.5143434;
	longitude 1673463.21659201;
};

object node {
	name L3030204;
	phases ABC;
	latitude 12275279.479208;
	longitude 1691395.86096071;
};

object node {
	name L2879079;
	phases ABC;
	latitude 12259341.7998332;
	longitude 1665728.0516568;
};

object node {
	name N1137996;
	phases ABC;
	latitude 12282942.8289752;
	longitude 1671766.37486243;
};

object node {
	name P895112;
	phases ABC;
	latitude 12276023.5667607;
	longitude 1685510.74453923;
};

object node {
	name P895102;
	phases ABC;
	latitude 12277930.9715625;
	longitude 1682352.40495229;
};

object node {
	name L3160878;
	phases ABC;
	latitude 12272838.7383417;
	longitude 1681028.90952705;
};

object node {
	name L3067506;
	phases ABC;
	latitude 12276120.6706328;
	longitude 1689145.49807861;
};

object node {
	name N1137957;
	phases ABC;
	latitude 12280070.7055805;
	longitude 1672553.38439916;
};

object node {
	name M1166402;
	phases ABC;
	latitude 12283981.5213281;
	longitude 1688192.02710173;
};

object node {
	name M1108462;
	phases ABC;
	latitude 12280114.5286845;
	longitude 1680549.79631061;
};

object node {
	name M1209805;
	phases ABC;
	latitude 12276525.3882012;
	longitude 1693695.40861085;
};

object node {
	name L2673322;
	phases ABC;
	latitude 12281293.8203336;
	longitude 1662466.18157377;
};

object node {
	name M1010017;
	phases ABC;
	latitude 12295391.1300427;
	longitude 1662987.30336625;
};

object node {
	name 226-23751;
	phases ABC;
	latitude 12272155.9187571;
	longitude 1681744.61589572;
};

object node {
	name L3085394;
	phases ABC;
	latitude 12273164.980646;
	longitude 1679334.70971748;
};

object node {
	name L2857591;
	phases ABC;
	latitude 12282552.0582868;
	longitude 1665826.1467609;
};

object node {
	name N1137993;
	phases ABC;
	latitude 12280299.2664767;
	longitude 1671738.5097744;
};

object node {
	name L3254211;
	phases ABC;
	latitude 12266981.8105923;
	longitude 1670420.53166117;
};

object node {
	name P895080;
	phases ABC;
	latitude 12275409.3224081;
	longitude 1688162.6014377;
};

object node {
	name L2861218;
	phases ABC;
	latitude 12272704.4100216;
	longitude 1682656.66812057;
};

object node {
	name M1009827;
	phases ABC;
	latitude 12283726.0292319;
	longitude 1660863.47821227;
};

object node {
	name L2935551;
	phases ABC;
	latitude 12277674.3940262;
	longitude 1677018.75349132;
};

object node {
	name N1139545;
	phases ABC;
	latitude 12268324.6186575;
	longitude 1675749.75125014;
};

object node {
	name L3047289;
	phases ABC;
	latitude 12270356.2305634;
	longitude 1678503.9589967;
};

object node {
	name L2914323;
	phases ABC;
	latitude 12281256.1248456;
	longitude 1663157.76250241;
};

object node {
	name L3104130;
	phases ABC;
	latitude 12258961.3387768;
	longitude 1665606.01952869;
};

object node {
	name M1108345;
	phases ABC;
	latitude 12273310.9375102;
	longitude 1680719.75983077;
};

object node {
	name L3104830;
	phases ABC;
	latitude 12281619.6489419;
	longitude 1680861.7312869;
};

object node {
	name P829960;
	phases ABC;
	latitude 12274174.140839;
	longitude 1684487.05173827;
};

object node {
	name E206217;
	phases ABC;
	latitude 12277879.3742504;
	longitude 1682519.83304844;
};

object node {
	name N1139542;
	phases ABC;
	latitude 12268650.0376658;
	longitude 1675749.21467414;
};

object node {
	name M1142826;
	phases ABC;
	latitude 12274537.5092873;
	longitude 1684194.118106;
};

object node {
	name L2914324;
	phases ABC;
	latitude 12281577.2840139;
	longitude 1665316.56340042;
};

object node {
	name L2673346;
	phases ABC;
	latitude 12263062.3399966;
	longitude 1670200.46996497;
};

object node {
	name M1047534;
	phases ABC;
	latitude 12282700.4113109;
	longitude 1671310.240206;
};

object node {
	name M1047574;
	phases ABC;
	latitude 12283282.8297435;
	longitude 1672117.41844675;
};

object node {
	name M1047374;
	phases ABC;
	latitude 12266470.3799358;
	longitude 1669131.52865197;
};

object node {
	name L2801895;
	phases ABC;
	latitude 12256840.7003108;
	longitude 1661004.79430841;
};

object node {
	name L2785547;
	phases ABC;
	latitude 12276195.2260249;
	longitude 1669452.67962827;
};

object node {
	name M1142821;
	phases ABC;
	latitude 12274365.0635912;
	longitude 1684664.30613844;
};

object node {
	name L3645810;
	phases ABC;
	latitude 12284243.5014884;
	longitude 1668929.15757979;
};

object node {
	name L2766720;
	phases ABC;
	latitude 12286330.4093943;
	longitude 1663496.32147873;
};

object node {
	name L2876814;
	phases ABC;
	latitude 12283965.1946721;
	longitude 1663141.6979904;
};

object node {
	name M1209819;
	phases ABC;
	latitude 12278034.6536106;
	longitude 1692167.75625743;
};

object node {
	name M1026883;
	phases ABC;
	latitude 12285061.9314411;
	longitude 1668559.44033144;
};

object node {
	name L2879074;
	phases ABC;
	latitude 12274887.1110797;
	longitude 1667786.57018672;
};

object node {
	name L2766730;
	phases ABC;
	latitude 12281111.5892935;
	longitude 1662431.46797373;
};

object node {
	name L2858166;
	phases ABC;
	latitude 12282586.8619988;
	longitude 1670253.61966102;
};

object node {
	name M3763618;
	phases ABC;
	latitude 12283634.3976158;
	longitude 1668719.22938759;
};

object node {
	name L2841627;
	phases ABC;
	latitude 12272190.3661171;
	longitude 1670741.13377347;
};

object node {
	name M1026701;
	phases ABC;
	latitude 12278164.4353707;
	longitude 1665004.39085613;
};

object node {
	name M1069574;
	phases ABC;
	latitude 12286687.5519226;
	longitude 1673581.15272012;
};

object node {
	name M1026978;
	phases ABC;
	latitude 12289777.4104855;
	longitude 1664802.43347994;
};

object node {
	name M1089197;
	phases ABC;
	latitude 12282893.0379991;
	longitude 1678293.37954051;
};

object node {
	name M1089097;
	phases ABC;
	latitude 12266422.0880958;
	longitude 1678669.76917286;
};

object node {
	name L3254915;
	phases ABC;
	latitude 12275160.1381519;
	longitude 1682928.65071282;
};

object node {
	name L3225319;
	phases ABC;
	latitude 12256497.0663905;
	longitude 1662230.70662955;
};

object node {
	name L3253995;
	phases ABC;
	latitude 12283386.7411676;
	longitude 1669701.5607805;
};

object node {
	name M4362177;
	phases ABC;
	latitude 12273545.2409984;
	longitude 1691274.1401286;
};

object node {
	name M1026704;
	phases ABC;
	latitude 12278196.4619947;
	longitude 1667884.08365881;
};

object node {
	name L2673321;
	phases ABC;
	latitude 12264550.28163;
	longitude 1669792.88929259;
};

object node {
	name L2748135;
	phases ABC;
	latitude 12260581.4870023;
	longitude 1667372.99706634;
};

object node {
	name L2916618;
	phases ABC;
	latitude 12289089.3398289;
	longitude 1673383.11111993;
};

object node {
	name L2823545;
	phases ABC;
	latitude 12282841.1785431;
	longitude 1682879.96975278;
};

object node {
	name L3233413;
	phases ABC;
	latitude 12280172.9622206;
	longitude 1680405.94479047;
};

object node {
	name L3008237;
	phases ABC;
	latitude 12286113.1043061;
	longitude 1675480.11976189;
};

object node {
	name M1047688;
	phases ABC;
	latitude 12284791.7019369;
	longitude 1670296.55802906;
};

object node {
	name L3122818;
	phases ABC;
	latitude 12284021.6498402;
	longitude 1662920.78023019;
};

object node {
	name M1047388;
	phases ABC;
	latitude 12266874.1185602;
	longitude 1669990.30010877;
};

object node {
	name M1069613;
	phases ABC;
	latitude 12288000.0004359;
	longitude 1673683.94184021;
};

object node {
	name L2841625;
	phases ABC;
	latitude 12269812.3882589;
	longitude 1674152.88059265;
};

object node {
	name M1069213;
	phases ABC;
	latitude 12270440.2313315;
	longitude 1674917.86184136;
};

object node {
	name M1142875;
	phases ABC;
	latitude 12276548.9934492;
	longitude 1684642.21231442;
};

object node {
	name L2785530;
	phases ABC;
	latitude 12278321.8897069;
	longitude 1664759.5401679;
};

object node {
	name L3178982;
	phases ABC;
	latitude 12280373.4819008;
	longitude 1662575.11059787;
};

object node {
	name M1166361;
	phases ABC;
	latitude 12275103.4249359;
	longitude 1688071.96924561;
};

object node {
	name R18241;
	phases ABC;
	latitude 12288254.3374601;
	longitude 1670273.23130904;
};

object node {
	name R18242;
	phases ABC;
	latitude 12265257.6485427;
	longitude 1672458.68078307;
};

object node {
	name R18243;
	phases ABC;
	latitude 12278469.280171;
	longitude 1667108.32583409;
};

object node {
	name R18245;
	phases ABC;
	latitude 12286711.8493947;
	longitude 1675617.11867401;
};

object node {
	name M1126020;
	phases ABC;
	latitude 12282324.6237906;
	longitude 1683166.88226505;
};

object node {
	name L3178969;
	phases ABC;
	latitude 12283864.351152;
	longitude 1660445.51008388;
};

object node {
	name N1142112;
	phases ABC;
	latitude 12259796.0912896;
	longitude 1679861.66830997;
};

object node {
	name N1134471;
	phases ABC;
	latitude 12293740.0324412;
	longitude 1664921.91380005;
};

object node {
	name L3030200;
	phases ABC;
	latitude 12275828.8593045;
	longitude 1685199.82127494;
};

object node {
	name M1089120;
	phases ABC;
	latitude 12268903.4817621;
	longitude 1676908.10005122;
};

object node {
	name F739842;
	phases ABC;
	latitude 12267644.6089289;
	longitude 1668209.15860312;
};

object node {
	name P895117;
	phases ABC;
	latitude 12285460.8613615;
	longitude 1675447.39681786;
};

object node {
	name P895107;
	phases ABC;
	latitude 12277885.3462184;
	longitude 1682162.47752811;
};

object node {
	name L3048228;
	phases ABC;
	latitude 12274434.7201672;
	longitude 1678880.88930105;
};

object node {
	name N1147867;
	phases ABC;
	latitude 12278156.6611627;
	longitude 1674320.00968081;
};

object node {
	name M1108412;
	phases ABC;
	latitude 12279692.8782521;
	longitude 1680883.55477492;
};

object node {
	name M1069588;
	phases ABC;
	latitude 12287113.040307;
	longitude 1674984.67169743;
};

object node {
	name M1069488;
	phases ABC;
	latitude 12281152.9015495;
	longitude 1673667.7790242;
};

object node {
	name P903360;
	phases ABC;
	latitude 12274186.588583;
	longitude 1669175.05274801;
};

object node {
	name L2860493;
	phases ABC;
	latitude 12279012.3483315;
	longitude 1664964.77024809;
};

object node {
	name P901910;
	phases ABC;
	latitude 12275197.7230479;
	longitude 1673842.28500836;
};

object node {
	name L3122824;
	phases ABC;
	latitude 12261699.6990994;
	longitude 1667138.05050612;
};

object node {
	name L3104853;
	phases ABC;
	latitude 12275209.310632;
	longitude 1685288.36860302;
};

object node {
	name N1136363;
	phases ABC;
	latitude 12286527.6973305;
	longitude 1675616.36910601;
};

object node {
	name P828359;
	phases ABC;
	latitude 12283867.165104;
	longitude 1669966.79726075;
};

object node {
	name L2822873;
	phases ABC;
	latitude 12286162.9198582;
	longitude 1673476.56136002;
};

object node {
	name N1136031;
	phases ABC;
	latitude 12283212.4072154;
	longitude 1678868.33096504;
};

object node {
	name L3122821;
	phases ABC;
	latitude 12280228.0288446;
	longitude 1671320.97991801;
};

object node {
	name L2954352;
	phases ABC;
	latitude 12268170.4779854;
	longitude 1676066.50721843;
};

object node {
	name L3254238;
	phases ABC;
	latitude 12262766.2196764;
	longitude 1669897.25946869;
};

object node {
	name L2746587;
	phases ABC;
	latitude 12283098.8783833;
	longitude 1663029.62323829;
};

object node {
	name L3216346;
	phases ABC;
	latitude 12279533.478316;
	longitude 1663109.56896637;
};

object node {
	name L3104856;
	phases ABC;
	latitude 12274751.4105995;
	longitude 1688400.32098992;
};

object node {
	name M1108375;
	phases ABC;
	latitude 12278592.0823471;
	longitude 1681539.07451953;
};

object node {
	name M1009843;
	phases ABC;
	latitude 12284246.1106404;
	longitude 1660189.48141165;
};

object node {
	name P860892;
	phases ABC;
	latitude 12268914.7990101;
	longitude 1675629.44353803;
};

object node {
	name L2841633;
	phases ABC;
	latitude 12279664.6486201;
	longitude 1667692.41133863;
};

object node {
	name M1027109;
	phases ABC;
	latitude 12295101.9606345;
	longitude 1663766.93191098;
};

object node {
	name N1140823;
	phases ABC;
	latitude 12278251.6146348;
	longitude 1665856.55136892;
};

object node {
	name L2748140;
	phases ABC;
	latitude 12279773.1311802;
	longitude 1662511.86016581;
};

object node {
	name L2917333;
	phases ABC;
	latitude 12275684.0902804;
	longitude 1688155.15900569;
};

object node {
	name L2748840;
	phases ABC;
	latitude 12272449.8804854;
	longitude 1692304.77974556;
};

object node {
	name M1047485;
	phases ABC;
	latitude 12280408.4043968;
	longitude 1670700.99706944;
};

object node {
	name M1047837;
	phases ABC;
	latitude 12294911.4106183;
	longitude 1669488.11822031;
};

object node {
	name M1047737;
	phases ABC;
	latitude 12286804.3084028;
	longitude 1670244.01863701;
};

object node {
	name M1026829;
	phases ABC;
	latitude 12283526.0666077;
	longitude 1663147.9648704;
};

object node {
	name M1047744;
	phases ABC;
	latitude 12287628.9929475;
	longitude 1671350.52846204;
};

object node {
	name M1026329;
	phases ABC;
	latitude 12260066.6157059;
	longitude 1666752.17453776;
};

object node {
	name M1047344;
	phases ABC;
	latitude 12264597.4798381;
	longitude 1669417.88001224;
};

object node {
	name L2897790;
	phases ABC;
	latitude 12285735.7398258;
	longitude 1675743.33281813;
};

object node {
	name L2766750;
	phases ABC;
	latitude 12261808.2881555;
	longitude 1668543.26113143;
};

object node {
	name M1047780;
	phases ABC;
	latitude 12289386.0008212;
	longitude 1669365.65191619;
};

object node {
	name M1047580;
	phases ABC;
	latitude 12283364.4343515;
	longitude 1669772.79431657;
};

object node {
	name M1047480;
	phases ABC;
	latitude 12280006.3738044;
	longitude 1672522.05819113;
};

object node {
	name M1047732;
	phases ABC;
	latitude 12286627.1400186;
	longitude 1670021.4911488;
};

object node {
	name M1047432;
	phases ABC;
	latitude 12274372.4486792;
	longitude 1668888.82836375;
};

object node {
	name L3217057;
	phases ABC;
	latitude 12275073.4299278;
	longitude 1692912.53193812;
};

object node {
	name L2897554;
	phases ABC;
	latitude 12284332.0078564;
	longitude 1669859.82202865;
};

object node {
	name L3048205;
	phases ABC;
	latitude 12273857.2783747;
	longitude 1679132.33045329;
};

object node {
	name L2767409;
	phases ABC;
	latitude 12272454.1403254;
	longitude 1686634.91631628;
};

object node {
	name L2989564;
	phases ABC;
	latitude 12289419.7027092;
	longitude 1673941.77275245;
};

object node {
	name L2876797;
	phases ABC;
	latitude 12288092.352948;
	longitude 1670275.23015704;
};

object node {
	name M1010015;
	phases ABC;
	latitude 12294700.3109701;
	longitude 1662482.39354178;
};

object node {
	name M1047435;
	phases ABC;
	latitude 12275027.5752078;
	longitude 1668649.56871553;
};

object node {
	name L2970845;
	phases ABC;
	latitude 12271750.1034607;
	longitude 1680254.68770233;
};

object node {
	name M1026951;
	phases ABC;
	latitude 12288132.780468;
	longitude 1664875.32999201;
};

object node {
	name M1026851;
	phases ABC;
	latitude 12284210.0494563;
	longitude 1665657.15808874;
};

object node {
	name L2710513;
	phases ABC;
	latitude 12292806.5089843;
	longitude 1671641.81140631;
};

object node {
	name M1027123;
	phases ABC;
	latitude 12296012.2065233;
	longitude 1663918.02106312;
};

object node {
	name M1027023;
	phases ABC;
	latitude 12292622.9999922;
	longitude 1664876.28026401;
};

object node {
	name M1069285;
	phases ABC;
	latitude 12272646.1362296;
	longitude 1674432.62510491;
};

object node {
	name L3178980;
	phases ABC;
	latitude 12262407.418268;
	longitude 1667819.30132275;
};

object node {
	name L2991902;
	phases ABC;
	latitude 12257352.6101993;
	longitude 1662976.92819824;
};

object node {
	name L3101827;
	phases ABC;
	latitude 12283180.8065754;
	longitude 1680962.70997499;
};

object node {
	name L2785535;
	phases ABC;
	latitude 12287570.7887875;
	longitude 1673622.85819216;
};

object node {
	name M1026895;
	phases ABC;
	latitude 12285271.9661293;
	longitude 1664836.22138397;
};

object node {
	name M1026795;
	phases ABC;
	latitude 12280738.2839491;
	longitude 1668183.45210709;
};

object node {
	name M1026695;
	phases ABC;
	latitude 12277981.7210025;
	longitude 1666395.69965743;
};

object node {
	name M1069469;
	phases ABC;
	latitude 12278797.9145393;
	longitude 1673628.44513616;
};

object node {
	name M1026954;
	phases ABC;
	latitude 12288335.5406602;
	longitude 1664388.45895156;
};

object node {
	name M1026854;
	phases ABC;
	latitude 12284240.8513764;
	longitude 1666749.15168976;
};

object node {
	name M1069136;
	phases ABC;
	latitude 12265616.621983;
	longitude 1672776.55086337;
};

object node {
	name L3251799;
	phases ABC;
	latitude 12277146.9684898;
	longitude 1684075.39964189;
};

object node {
	name L2879061;
	phases ABC;
	latitude 12275161.2317839;
	longitude 1672845.51111943;
};

object node {
	name L2785513;
	phases ABC;
	latitude 12274619.8716554;
	longitude 1675283.8517297;
};

object node {
	name L3120503;
	phases ABC;
	latitude 12294317.9166017;
	longitude 1662404.34016571;
};

object node {
	name L2991907;
	phases ABC;
	latitude 12268033.6183373;
	longitude 1674645.60072111;
};

object node {
	name L3048200;
	phases ABC;
	latitude 12256746.6315748;
	longitude 1662171.49075749;
};

object node {
	name M1047777;
	phases ABC;
	latitude 12289179.640245;
	longitude 1669147.47028399;
};

object node {
	name M4118755;
	phases ABC;
	latitude 12275343.8355601;
	longitude 1692886.3380181;
};

object node {
	name L2691944;
	phases ABC;
	latitude 12289364.0585491;
	longitude 1664094.72659928;
};

object node {
	name M1069563;
	phases ABC;
	latitude 12286397.2315384;
	longitude 1675662.74811406;
};

object node {
	name M1069463;
	phases ABC;
	latitude 12278541.2960431;
	longitude 1673730.43144026;
};

object node {
	name M1069363;
	phases ABC;
	latitude 12273491.1533184;
	longitude 1675263.48232168;
};

object node {
	name L2991908;
	phases ABC;
	latitude 12286783.2508667;
	longitude 1670441.72846119;
};

object node {
	name L2936216;
	phases ABC;
	latitude 12278197.8914987;
	longitude 1692152.35939341;
};

object node {
	name L2745806;
	phases ABC;
	latitude 12282281.6649425;
	longitude 1674499.23425697;
};

object node {
	name L2674052;
	phases ABC;
	latitude 12273664.6967425;
	longitude 1681649.23234363;
};

object node {
	name L2860500;
	phases ABC;
	latitude 12290279.031222;
	longitude 1671019.78874973;
};

object node {
	name N1134480;
	phases ABC;
	latitude 12284588.8557287;
	longitude 1675016.94817746;
};

object node {
	name L2690941;
	phases ABC;
	latitude 12293136.9578806;
	longitude 1673571.79745611;
};

object node {
	name L2673314;
	phases ABC;
	latitude 12285378.3597294;
	longitude 1663087.74138235;
};

object node {
	name M1186064;
	phases ABC;
	latitude 12274644.9186954;
	longitude 1691623.61904092;
};

object node {
	name L3235244;
	phases ABC;
	latitude 12274704.2615435;
	longitude 1674866.87892932;
};

object node {
	name N1136664;
	phases ABC;
	latitude 12282478.5350867;
	longitude 1670838.22535756;
};

object node {
	name P895114;
	phases ABC;
	latitude 12275798.0410005;
	longitude 1685829.61813953;
};

object node {
	name P895104;
	phases ABC;
	latitude 12264403.8864939;
	longitude 1671529.47041421;
};

object node {
	name M1108483;
	phases ABC;
	latitude 12280575.652269;
	longitude 1681398.7496554;
};

object node {
	name L3235251;
	phases ABC;
	latitude 12270202.1677153;
	longitude 1674584.51297705;
};

object node {
	name L3177881;
	phases ABC;
	latitude 12283703.2267999;
	longitude 1663055.43623032;
};

object node {
	name L2673311;
	phases ABC;
	latitude 12284342.1659365;
	longitude 1664163.52711135;
};

object node {
	name L2804251;
	phases ABC;
	latitude 12266421.3180478;
	longitude 1673615.46900815;
};

object node {
	name 221-703009;
	phases ABC;
	latitude 12276047.6471447;
	longitude 1681921.78018389;
};

object node {
	name L3179607;
	phases ABC;
	latitude 12278164.1117867;
	longitude 1681586.41199157;
};

object node {
	name L3029520;
	phases ABC;
	latitude 12275937.8415766;
	longitude 1669060.51220391;
};

object node {
	name M1108350;
	phases ABC;
	latitude 12273571.2915584;
	longitude 1680382.22895045;
};

object node {
	name L3122814;
	phases ABC;
	latitude 12286954.7299069;
	longitude 1670200.17095697;
};

object node {
	name L2973791;
	phases ABC;
	latitude 12279879.0906043;
	longitude 1681551.85813554;
};

object node {
	name M1026800;
	phases ABC;
	latitude 12281028.8787654;
	longitude 1668244.72826715;
};

object node {
	name M1209800;
	phases ABC;
	latitude 12276129.0920088;
	longitude 1693062.49878626;
};

object node {
	name L3448661;
	phases ABC;
	latitude 12293927.6333374;
	longitude 1671136.95892584;
};

object node {
	name L3197625;
	phases ABC;
	latitude 12283386.0694236;
	longitude 1678952.86830912;
};

object node {
	name M1166362;
	phases ABC;
	latitude 12275143.5780239;
	longitude 1687698.16009327;
};

object node {
	name M1209795;
	phases ABC;
	latitude 12275954.0412566;
	longitude 1692212.30844947;
};

object node {
	name N1144666;
	phases ABC;
	latitude 12293036.8352566;
	longitude 1665016.26925614;
};

object node {
	name L3226771;
	phases ABC;
	latitude 12278819.6888753;
	longitude 1666269.19469731;
};

object node {
	name L3178997;
	phases ABC;
	latitude 12261415.8913551;
	longitude 1668046.94881096;
};

object node {
	name N1138596;
	phases ABC;
	latitude 12274484.2244233;
	longitude 1673874.29115239;
};

object node {
	name M1125959;
	phases ABC;
	latitude 12277736.1780903;
	longitude 1683119.770073;
};

object node {
	name L2726975;
	phases ABC;
	latitude 12292533.2279601;
	longitude 1672472.72187109;
};

object node {
	name L2879773;
	phases ABC;
	latitude 12271272.5385323;
	longitude 1681411.68072741;
};

object node {
	name L2879073;
	phases ABC;
	latitude 12269853.839779;
	longitude 1675411.13902582;
};

object node {
	name 196-31070;
	phases ABC;
	latitude 12275638.5591444;
	longitude 1686023.26473171;
};

object node {
	name P904452;
	phases ABC;
	latitude 12279307.6781238;
	longitude 1680727.87810277;
};

object node {
	name L3254206;
	phases ABC;
	latitude 12283715.9817439;
	longitude 1661025.61018042;
};

object node {
	name M1108274;
	phases ABC;
	latitude 12266599.1786559;
	longitude 1679829.38773394;
};

object node {
	name P827528;
	phases ABC;
	latitude 12276453.2699291;
	longitude 1663006.10810227;
};

object node {
	name M1027013;
	phases ABC;
	latitude 12292299.7109039;
	longitude 1664889.78068002;
};

object node {
	name P827508;
	phases ABC;
	latitude 12267756.560801;
	longitude 1674770.74990523;
};

object node {
	name L2822866;
	phases ABC;
	latitude 12284684.8086248;
	longitude 1670299.17946906;
};

object node {
	name M1142814;
	phases ABC;
	latitude 12273423.8396543;
	longitude 1685271.46031501;
};

object node {
	name L2766732;
	phases ABC;
	latitude 12267833.5492171;
	longitude 1668123.29825103;
};

object node {
	name L3195310;
	phases ABC;
	latitude 12263268.8398368;
	longitude 1667317.04161028;
};

object node {
	name L2935568;
	phases ABC;
	latitude 12291702.9810473;
	longitude 1670885.59559761;
};

object node {
	name L2748125;
	phases ABC;
	latitude 12281160.6184135;
	longitude 1673854.54024037;
};

object node {
	name P873787;
	phases ABC;
	latitude 12278589.2233391;
	longitude 1673733.52392026;
};

object node {
	name M1047702;
	phases ABC;
	latitude 12285031.1622891;
	longitude 1670249.62196502;
};

object node {
	name N1141479;
	phases ABC;
	latitude 12275809.6695445;
	longitude 1685845.19522754;
};

object node {
	name L3122847;
	phases ABC;
	latitude 12282384.0936146;
	longitude 1665247.88167236;
};

object node {
	name L2897764;
	phases ABC;
	latitude 12257094.6318311;
	longitude 1663358.5811906;
};

object node {
	name L2764403;
	phases ABC;
	latitude 12283881.988528;
	longitude 1672416.66401503;
};

object node {
	name M1089141;
	phases ABC;
	latitude 12269607.2319067;
	longitude 1678190.18901241;
};

object node {
	name L3160100;
	phases ABC;
	latitude 12291692.4502313;
	longitude 1667872.8401388;
};

object node {
	name N1136671;
	phases ABC;
	latitude 12283406.8238556;
	longitude 1669781.54746858;
};

object node {
	name P827496;
	phases ABC;
	latitude 12259763.6509696;
	longitude 1679886.26069399;
};

object node {
	name L3066811;
	phases ABC;
	latitude 12289720.8693015;
	longitude 1669590.0922364;
};

object node {
	name N1140519;
	phases ABC;
	latitude 12281814.5816781;
	longitude 1669211.24090805;
};

object node {
	name P827531;
	phases ABC;
	latitude 12260684.0918024;
	longitude 1667369.74893833;
};

object node {
	name M1069516;
	phases ABC;
	latitude 12284448.8708326;
	longitude 1673769.24923229;
};

object node {
	name M1089185;
	phases ABC;
	latitude 12279640.5723321;
	longitude 1678664.28462885;
};

object node {
	name L2710543;
	phases ABC;
	latitude 12277718.8028583;
	longitude 1674320.31278481;
};

object node {
	name L2897769;
	phases ABC;
	latitude 12277690.0284583;
	longitude 1673493.65806404;
};

object node {
	name M1027073;
	phases ABC;
	latitude 12293553.369529;
	longitude 1666181.47885723;
};

object node {
	name N1140819;
	phases ABC;
	latitude 12278103.5442346;
	longitude 1665943.435721;
};

object node {
	name L2766719;
	phases ABC;
	latitude 12284340.4415205;
	longitude 1670529.50574128;
};

object node {
	name M1069489;
	phases ABC;
	latitude 12281393.4964937;
	longitude 1673665.1821602;
};

object node {
	name L2879087;
	phases ABC;
	latitude 12283005.3380312;
	longitude 1665152.89543227;
};

object node {
	name L2897772;
	phases ABC;
	latitude 12264828.1993263;
	longitude 1669385.57895621;
};

object node {
	name L3122819;
	phases ABC;
	latitude 12271581.0410606;
	longitude 1674284.89057677;
};

object node {
	name L2785521;
	phases ABC;
	latitude 12283695.7393119;
	longitude 1668900.80097176;
};

object node {
	name L2841635;
	phases ABC;
	latitude 12281613.3902539;
	longitude 1668890.13089175;
};

object node {
	name L2729427;
	phases ABC;
	latitude 12289506.3085333;
	longitude 1668721.58868359;
};

object node {
	name M1026713;
	phases ABC;
	latitude 12278316.2208428;
	longitude 1664938.74016807;
};

object node {
	name P901934;
	phases ABC;
	latitude 12283294.6753755;
	longitude 1679236.38114138;
};

object node {
	name M1089113;
	phases ABC;
	latitude 12268367.5119696;
	longitude 1677067.30337936;
};

object node {
	name N1134469;
	phases ABC;
	latitude 12295928.1238352;
	longitude 1663826.47546303;
};

object node {
	name L2801902;
	phases ABC;
	latitude 12287378.1989633;
	longitude 1674735.74139319;
};

object node {
	name M1125904;
	phases ABC;
	latitude 12272365.4086773;
	longitude 1682023.07426398;
};

object node {
	name M1166374;
	phases ABC;
	latitude 12275334.5294481;
	longitude 1688496.06908601;
};

object node {
	name L2821770;
	phases ABC;
	latitude 12272258.4948852;
	longitude 1674617.44891308;
};

object node {
	name M1026916;
	phases ABC;
	latitude 12285878.7311859;
	longitude 1663530.03155876;
};

object node {
	name M1047528;
	phases ABC;
	latitude 12282578.9853908;
	longitude 1670267.38222103;
};

object node {
	name E182748;
	phases ABC;
	latitude 12263210.1810208;
	longitude 1670349.38823711;
};

object node {
	name L2973159;
	phases ABC;
	latitude 12275951.5795606;
	longitude 1667443.8250984;
};

object node {
	name L3010557;
	phases ABC;
	latitude 12283332.8705755;
	longitude 1678457.91176466;
};

object node {
	name E183473;
	phases ABC;
	latitude 12279600.578988;
	longitude 1681616.7715436;
};

object node {
	name L3120502;
	phases ABC;
	latitude 12280976.4212933;
	longitude 1665561.31988065;
};

object node {
	name M1166386;
	phases ABC;
	latitude 12276021.3713047;
	longitude 1689001.53187048;
};

object node {
	name L3254227;
	phases ABC;
	latitude 12285880.6604019;
	longitude 1674699.34024116;
};

object node {
	name E182726;
	phases ABC;
	latitude 12292976.0997685;
	longitude 1664880.33940001;
};

object node {
	name E182746;
	phases ABC;
	latitude 12286817.0019068;
	longitude 1675618.33928202;
};

object node {
	name L2860486;
	phases ABC;
	latitude 12270757.1716198;
	longitude 1673871.71886439;
};

object node {
	name L3215385;
	phases ABC;
	latitude 12270171.4313313;
	longitude 1678635.00232482;
};

object node {
	name N1136029;
	phases ABC;
	latitude 12288498.7539723;
	longitude 1670266.56302103;
};

object node {
	name L2785526;
	phases ABC;
	latitude 12260455.3383942;
	longitude 1666655.97997767;
};

object node {
	name L3254220;
	phases ABC;
	latitude 12265047.9702065;
	longitude 1671856.96199851;
};

object node {
	name M1142863;
	phases ABC;
	latitude 12275880.7802006;
	longitude 1685676.71036338;
};

object node {
	name L3235273;
	phases ABC;
	latitude 12287508.4394754;
	longitude 1675307.89934573;
};

object node {
	name L3085401;
	phases ABC;
	latitude 12282505.0362067;
	longitude 1670835.09191756;
};

object node {
	name M3037449;
	phases ABC;
	latitude 12278554.7882671;
	longitude 1681586.42018357;
};

object node {
	name M1209776;
	phases ABC;
	latitude 12274580.9105034;
	longitude 1691831.13878511;
};

object node {
	name L3235245;
	phases ABC;
	latitude 12279688.1309881;
	longitude 1672012.90081466;
};

object node {
	name M1149233;
	phases ABC;
	latitude 12275406.5248401;
	longitude 1686911.20790053;
};

object node {
	name M1108398;
	phases ABC;
	latitude 12279558.762924;
	longitude 1679256.8365654;
};

object node {
	name L3235945;
	phases ABC;
	latitude 12283848.602032;
	longitude 1681312.75003932;
};

object node {
	name L2691939;
	phases ABC;
	latitude 12283932.6683361;
	longitude 1661559.19200492;
};

object node {
	name M1047756;
	phases ABC;
	latitude 12288186.73298;
	longitude 1670627.29774137;
};

object node {
	name N1137003;
	phases ABC;
	latitude 12285421.6093935;
	longitude 1670320.09774108;
};

object node {
	name L2727008;
	phases ABC;
	latitude 12288036.7128839;
	longitude 1674122.40635262;
};

object node {
	name L3104121;
	phases ABC;
	latitude 12267739.910561;
	longitude 1672018.56967866;
};

object node {
	name N1139254;
	phases ABC;
	latitude 12276440.1545371;
	longitude 1673761.93377629;
};

object node {
	name L3029498;
	phases ABC;
	latitude 12269978.7104351;
	longitude 1678821.829077;
};

object node {
	name M3036169;
	phases ABC;
	latitude 12275370.1441681;
	longitude 1667530.81594648;
};

object node {
	name L2860488;
	phases ABC;
	latitude 12257487.1187434;
	longitude 1663444.20807068;
};

object node {
	name L2973169;
	phases ABC;
	latitude 12280407.8719168;
	longitude 1663562.76679079;
};

object node {
	name L3234185;
	phases ABC;
	latitude 12292499.2475441;
	longitude 1673575.53710411;
};

object node {
	name L2729413;
	phases ABC;
	latitude 12285087.2774892;
	longitude 1666586.5363936;
};

object node {
	name L3727708;
	phases ABC;
	latitude 12280294.0891327;
	longitude 1669741.09127654;
};

object node {
	name L2860489;
	phases ABC;
	latitude 12261657.7110033;
	longitude 1667537.04186649;
};

object node {
	name L3197653;
	phases ABC;
	latitude 12287630.7009795;
	longitude 1673289.28814385;
};

object node {
	name P829797;
	phases ABC;
	latitude 12280577.778093;
	longitude 1681379.71963938;
};

object node {
	name L3104129;
	phases ABC;
	latitude 12283260.1993435;
	longitude 1671564.51988624;
};

object node {
	name L3104144;
	phases ABC;
	latitude 12286288.2205943;
	longitude 1675583.08910598;
};

object node {
	name L3176656;
	phases ABC;
	latitude 12285948.678578;
	longitude 1669080.57441193;
};

object node {
	name L3197654;
	phases ABC;
	latitude 12284118.6103523;
	longitude 1672755.58753535;
};

object node {
	name M1047825;
	phases ABC;
	latitude 12292763.2265523;
	longitude 1672472.69729509;
};

object node {
	name M1047725;
	phases ABC;
	latitude 12286090.2035701;
	longitude 1670053.95194883;
};

object node {
	name M1047325;
	phases ABC;
	latitude 12264021.3119015;
	longitude 1671194.02849389;
};

object node {
	name M1026949;
	phases ABC;
	latitude 12288000.0004359;
	longitude 1664622.02106377;
};

object node {
	name M1026849;
	phases ABC;
	latitude 12284151.3373923;
	longitude 1664415.61952758;
};

object node {
	name M1047457;
	phases ABC;
	latitude 12276271.3174169;
	longitude 1669348.39137218;
};

object node {
	name N1140831;
	phases ABC;
	latitude 12277030.1341856;
	longitude 1663670.68000689;
};

object node {
	name L2804957;
	phases ABC;
	latitude 12287096.291763;
	longitude 1685878.25813957;
};

object node {
	name M1047793;
	phases ABC;
	latitude 12290040.6604058;
	longitude 1670700.55060544;
};

object node {
	name M1047593;
	phases ABC;
	latitude 12283544.1094877;
	longitude 1669809.80986861;
};

object node {
	name M1047720;
	phases ABC;
	latitude 12285760.3485938;
	longitude 1670157.56846093;
};

object node {
	name M1126025;
	phases ABC;
	latitude 12282666.2793429;
	longitude 1682931.87016883;
};

object node {
	name M1047293;
	phases ABC;
	latitude 12261737.3085714;
	longitude 1668746.82823562;
};

object node {
	name M1047420;
	phases ABC;
	latitude 12273449.4519423;
	longitude 1670586.55892533;
};

object node {
	name M1047752;
	phases ABC;
	latitude 12288000.0004359;
	longitude 1671672.42900634;
};

object node {
	name M1047552;
	phases ABC;
	latitude 12282875.0483671;
	longitude 1669587.4093564;
};

object node {
	name M1142880;
	phases ABC;
	latitude 12286465.3316344;
	longitude 1686350.64572401;
};

object node {
	name N1142103;
	phases ABC;
	latitude 12281587.2372939;
	longitude 1680878.96315891;
};

object node {
	name L2729410;
	phases ABC;
	latitude 12281312.3465416;
	longitude 1668574.25556345;
};

object node {
	name F739841;
	phases ABC;
	latitude 12267577.7785928;
	longitude 1668577.95015546;
};

object node {
	name M1026880;
	phases ABC;
	latitude 12284934.734257;
	longitude 1664417.63066358;
};

object node {
	name M1026780;
	phases ABC;
	latitude 12280371.0816448;
	longitude 1667999.91034692;
};

object node {
	name L3048946;
	phases ABC;
	latitude 12277121.9214497;
	longitude 1688896.37935838;
};

object node {
	name P827495;
	phases ABC;
	latitude 12267561.1488328;
	longitude 1668504.43105139;
};

object node {
	name L3066821;
	phases ABC;
	latitude 12279671.2513721;
	longitude 1662744.13203803;
};

object node {
	name M1069225;
	phases ABC;
	latitude 12271400.7515244;
	longitude 1674353.48628884;
};

object node {
	name N1142106;
	phases ABC;
	latitude 12283257.0536154;
	longitude 1680356.07189443;
};

object node {
	name L3160103;
	phases ABC;
	latitude 12287931.3719558;
	longitude 1664258.12832744;
};

object node {
	name M1027043;
	phases ABC;
	latitude 12293065.3802806;
	longitude 1664892.57005603;
};

object node {
	name M1089207;
	phases ABC;
	latitude 12283353.9281115;
	longitude 1676785.3019711;
};

object node {
	name L3141400;
	phases ABC;
	latitude 12269650.5880668;
	longitude 1678773.45941295;
};

object node {
	name M1209814;
	phases ABC;
	latitude 12277271.7244579;
	longitude 1693968.1202911;
};

object node {
	name L3139086;
	phases ABC;
	latitude 12276103.0619288;
	longitude 1669206.74350004;
};

object node {
	name L3179678;
	phases ABC;
	latitude 12270391.3906275;
	longitude 1680264.34197434;
};

object node {
	name M1047699;
	phases ABC;
	latitude 12285016.4207851;
	longitude 1670292.88801306;
};

object node {
	name L2748130;
	phases ABC;
	latitude 12266354.2706237;
	longitude 1671885.85108654;
};

object node {
	name P901905;
	phases ABC;
	latitude 12292302.8975919;
	longitude 1664856.85293599;
};

object node {
	name M1047299;
	phases ABC;
	latitude 12262068.8797717;
	longitude 1669187.75034803;
};

object node {
	name M1209828;
	phases ABC;
	latitude 12281507.9510218;
	longitude 1691914.61936119;
};

object node {
	name M1069497;
	phases ABC;
	latitude 12283478.7291357;
	longitude 1675130.35003356;
};

object node {
	name M1069620;
	phases ABC;
	latitude 12288050.0699399;
	longitude 1674790.07073724;
};

object node {
	name M1026335;
	phases ABC;
	latitude 12260391.3793542;
	longitude 1667171.65818615;
};

object node {
	name M1069556;
	phases ABC;
	latitude 12286112.8872181;
	longitude 1675612.11745801;
};

object node {
	name M1069456;
	phases ABC;
	latitude 12278144.0127147;
	longitude 1674393.30350487;
};

object node {
	name M1069356;
	phases ABC;
	latitude 12273446.6666623;
	longitude 1675048.75361748;
};

object node {
	name M1069156;
	phases ABC;
	latitude 12266990.3097923;
	longitude 1673984.05985649;
};

object node {
	name L3010562;
	phases ABC;
	latitude 12289896.0797976;
	longitude 1669857.56103665;
};

object node {
	name L2898526;
	phases ABC;
	latitude 12271531.6842605;
	longitude 1681401.6291434;
};

object node {
	name M1125934;
	phases ABC;
	latitude 12273477.4481023;
	longitude 1683853.92072969;
};

object node {
	name N1139544;
	phases ABC;
	latitude 12271378.5266284;
	longitude 1674386.85230487;
};

object node {
	name F739844;
	phases ABC;
	latitude 12267909.6979532;
	longitude 1668011.24807493;
};

object node {
	name M1209823;
	phases ABC;
	latitude 12280383.4843328;
	longitude 1691905.82524918;
};

object node {
	name M1069192;
	phases ABC;
	latitude 12268205.1096654;
	longitude 1674569.48884904;
};

object node {
	name M1026866;
	phases ABC;
	latitude 12284413.7804005;
	longitude 1663095.04045435;
};

object node {
	name L2804259;
	phases ABC;
	latitude 12260220.371354;
	longitude 1667324.38983429;
};

object node {
	name P829974;
	phases ABC;
	latitude 12275411.6325521;
	longitude 1687299.92649289;
};

object node {
	name M1026466;
	phases ABC;
	latitude 12267573.3016648;
	longitude 1668558.00263544;
};

object node {
	name M1026366;
	phases ABC;
	latitude 12261667.7298193;
	longitude 1667340.74106631;
};

object node {
	name L3649300;
	phases ABC;
	latitude 12284692.3002088;
	longitude 1668008.60615493;
};

object node {
	name L3010567;
	phases ABC;
	latitude 12270365.8192994;
	longitude 1675570.58811397;
};

object node {
	name N1136998;
	phases ABC;
	latitude 12284328.0429284;
	longitude 1670297.01678106;
};

object node {
	name M1125940;
	phases ABC;
	latitude 12274684.9980555;
	longitude 1683265.44840914;
};

object node {
	name L3160872;
	phases ABC;
	latitude 12275677.2786324;
	longitude 1685969.20162766;
};

object node {
	name M1209751;
	phases ABC;
	latitude 12273072.09975;
	longitude 1692000.00048127;
};

object node {
	name M1108368;
	phases ABC;
	latitude 12276675.5598493;
	longitude 1679175.62926933;
};

object node {
	name L2891575;
	phases ABC;
	latitude 12286266.9172983;
	longitude 1686093.82652377;
};

object node {
	name L2673306;
	phases ABC;
	latitude 12280080.3393725;
	longitude 1677113.94862741;
};

object node {
	name L3085392;
	phases ABC;
	latitude 12276913.4391455;
	longitude 1677610.78113987;
};

object node {
	name N1136665;
	phases ABC;
	latitude 12282425.8400467;
	longitude 1670535.68660528;
};

object node {
	name N1137995;
	phases ABC;
	latitude 12283060.4701913;
	longitude 1672175.10651081;
};

object node {
	name L2763153;
	phases ABC;
	latitude 12261838.0414995;
	longitude 1668869.35597973;
};

object node {
	name L3235243;
	phases ABC;
	latitude 12273547.6658304;
	longitude 1675984.64046636;
};

object node {
	name M1108263;
	phases ABC;
	latitude 12260104.7699459;
	longitude 1679627.65154175;
};

object node {
	name L3254870;
	phases ABC;
	latitude 12277523.9602341;
	longitude 1682029.86133599;
};

object node {
	name L3085395;
	phases ABC;
	latitude 12266705.662368;
	longitude 1673886.0425764;
};

object node {
	name N1137992;
	phases ABC;
	latitude 12281790.6774221;
	longitude 1669582.94881239;
};

object node {
	name L3104135;
	phases ABC;
	latitude 12259867.3207297;
	longitude 1666975.35738597;
};

object node {
	name M1009724;
	phases ABC;
	latitude 12280504.9716929;
	longitude 1662873.18880615;
};

object node {
	name L2841620;
	phases ABC;
	latitude 12266449.6787518;
	longitude 1671528.18017421;
};

object node {
	name L3085398;
	phases ABC;
	latitude 12285489.5210735;
	longitude 1663360.6087106;
};

object node {
	name L2916610;
	phases ABC;
	latitude 12278727.8114992;
	longitude 1665617.5702487;
};

object node {
	name M1166398;
	phases ABC;
	latitude 12283707.3637599;
	longitude 1689036.73289451;
};

object node {
	name L3048212;
	phases ABC;
	latitude 12285351.4817774;
	longitude 1667296.70087427;
};

object node {
	name L2935555;
	phases ABC;
	latitude 12285420.4010735;
	longitude 1670341.4993411;
};

object node {
	name N1139541;
	phases ABC;
	latitude 12267924.8900172;
	longitude 1675076.80302551;
};

object node {
	name M1026792;
	phases ABC;
	latitude 12280726.3318211;
	longitude 1665892.08826496;
};

object node {
	name L2745799;
	phases ABC;
	latitude 12285371.1712494;
	longitude 1665036.76564016;
};

object node {
	name M1026492;
	phases ABC;
	latitude 12268022.9359693;
	longitude 1668244.85114715;
};

object node {
	name L3104134;
	phases ABC;
	latitude 12264837.2310063;
	longitude 1672079.87860672;
};

object node {
	name L2767341;
	phases ABC;
	latitude 12277926.4290985;
	longitude 1682254.8177522;
};

object node {
	name N1136366;
	phases ABC;
	latitude 12284679.1602408;
	longitude 1673623.09985616;
};

object node {
	name L2991940;
	phases ABC;
	latitude 12274546.0535433;
	longitude 1679157.03752531;
};

object node {
	name L2710509;
	phases ABC;
	latitude 12274859.9300236;
	longitude 1678923.98741309;
};

object node {
	name L2895489;
	phases ABC;
	latitude 12293551.935929;
	longitude 1664596.78151175;
};

object node {
	name L3645811;
	phases ABC;
	latitude 12284702.2207208;
	longitude 1668920.78945178;
};

object node {
	name L2766721;
	phases ABC;
	latitude 12270583.4889316;
	longitude 1677417.74075569;
};

object node {
	name M1125957;
	phases ABC;
	latitude 12277641.9004582;
	longitude 1683309.14863318;
};

object node {
	name L3066804;
	phases ABC;
	latitude 12287047.823795;
	longitude 1671571.99508625;
};

object node {
	name L3085410;
	phases ABC;
	latitude 12286195.3683702;
	longitude 1674478.11937695;
};

object node {
	name N1137987;
	phases ABC;
	latitude 12286627.2055546;
	longitude 1669982.28014077;
};

object node {
	name M1089122;
	phases ABC;
	latitude 12268915.3683541;
	longitude 1675732.28590612;
};

object node {
	name R42246;
	phases ABC;
	latitude 12284208.7264483;
	longitude 1673069.33294364;
};

object node {
	name L2820531;
	phases ABC;
	latitude 12281883.2593102;
	longitude 1669502.31905232;
};

object node {
	name L2879070;
	phases ABC;
	latitude 12283697.1892959;
	longitude 1668406.4055793;
};

object node {
	name M1069175;
	phases ABC;
	latitude 12267998.9497932;
	longitude 1675199.13006562;
};

object node {
	name L2839331;
	phases ABC;
	latitude 12293747.6960572;
	longitude 1665165.44967228;
};

object node {
	name N1139255;
	phases ABC;
	latitude 12276991.0419616;
	longitude 1673911.93339243;
};

object node {
	name N1138595;
	phases ABC;
	latitude 12274230.325671;
	longitude 1673682.37716821;
};

object node {
	name M1069632;
	phases ABC;
	latitude 12288812.4420366;
	longitude 1673610.72174415;
};

object node {
	name L3068944;
	phases ABC;
	latitude 12272726.0532856;
	longitude 1683008.9323129;
};

object node {
	name L2841623;
	phases ABC;
	latitude 12280100.1189565;
	longitude 1662643.25165393;
};

object node {
	name M1026905;
	phases ABC;
	latitude 12285579.3709296;
	longitude 1663847.40192705;
};

object node {
	name M1026805;
	phases ABC;
	latitude 12281252.5695176;
	longitude 1665452.03040855;
};

object node {
	name M1026705;
	phases ABC;
	latitude 12278220.5546668;
	longitude 1665181.4568403;
};

object node {
	name P901912;
	phases ABC;
	latitude 12281408.5411017;
	longitude 1669871.72910066;
};

object node {
	name M1089145;
	phases ABC;
	latitude 12270114.7959392;
	longitude 1678531.48411673;
};

object node {
	name P901932;
	phases ABC;
	latitude 12286112.9240821;
	longitude 1675590.93704199;
};

object node {
	name M1142808;
	phases ABC;
	latitude 12273107.677606;
	longitude 1686252.94383592;
};

object node {
	name M1125916;
	phases ABC;
	latitude 12272899.7154938;
	longitude 1682933.44712883;
};

object node {
	name P901972;
	phases ABC;
	latitude 12281025.6470214;
	longitude 1662794.20154207;
};

object node {
	name M1166395;
	phases ABC;
	latitude 12283583.4720478;
	longitude 1688793.73769429;
};

object node {
	name L3103822;
	phases ABC;
	latitude 12283037.0984152;
	longitude 1669343.59905217;
};

object node {
	name P859135;
	phases ABC;
	latitude 12285023.9779051;
	longitude 1670270.70407703;
};

object node {
	name M1047548;
	phases ABC;
	latitude 12282858.9183191;
	longitude 1669648.84116446;
};

object node {
	name P829963;
	phases ABC;
	latitude 12272885.6293498;
	longitude 1682950.22024884;
};

object node {
	name L2766717;
	phases ABC;
	latitude 12266416.0915518;
	longitude 1674323.63054481;
};

object node {
	name L2785531;
	phases ABC;
	latitude 12283620.3114718;
	longitude 1665653.22183273;
};

object node {
	name L3010566;
	phases ABC;
	latitude 12269531.9392347;
	longitude 1674207.7014567;
};

object node {
	name M1010013;
	phases ABC;
	latitude 12294474.1749059;
	longitude 1662315.22349363;
};

object node {
	name L2710537;
	phases ABC;
	latitude 12257085.5305191;
	longitude 1662355.74931766;
};

object node {
	name L2933164;
	phases ABC;
	latitude 12270065.2384352;
	longitude 1679025.65013319;
};

object node {
	name L2973171;
	phases ABC;
	latitude 12286954.2015229;
	longitude 1675053.05851349;
};

object node {
	name N1134470;
	phases ABC;
	latitude 12294387.2864578;
	longitude 1664384.20730355;
};

object node {
	name L3216988;
	phases ABC;
	latitude 12278023.6312746;
	longitude 1681260.34991127;
};

object node {
	name N1147860;
	phases ABC;
	latitude 12283703.2227039;
	longitude 1663116.18400637;
};

object node {
	name L2692661;
	phases ABC;
	latitude 12275309.629864;
	longitude 1687977.94146953;
};

object node {
	name M1108413;
	phases ABC;
	latitude 12279696.5933241;
	longitude 1680891.59522293;
};

object node {
	name M1069548;
	phases ABC;
	latitude 12285891.1011059;
	longitude 1675629.82856203;
};

object node {
	name M1108262;
	phases ABC;
	latitude 12259751.6988416;
	longitude 1679895.321046;
};

object node {
	name M1069248;
	phases ABC;
	latitude 12272219.7303412;
	longitude 1675228.67451365;
};

object node {
	name M1069148;
	phases ABC;
	latitude 12266091.5900475;
	longitude 1674268.12974476;
};

object node {
	name L3122825;
	phases ABC;
	latitude 12261468.8198672;
	longitude 1667399.57191436;
};

object node {
	name N1140527;
	phases ABC;
	latitude 12283672.8959198;
	longitude 1668563.13492344;
};

object node {
	name M1047672;
	phases ABC;
	latitude 12284558.4265447;
	longitude 1670298.63060506;
};

object node {
	name L2726983;
	phases ABC;
	latitude 12294121.9885376;
	longitude 1665133.88589625;
};

object node {
	name L3198347;
	phases ABC;
	latitude 12276943.1310496;
	longitude 1688541.39951805;
};

object node {
	name L2710510;
	phases ABC;
	latitude 12267047.7807684;
	longitude 1673946.15956846;
};

object node {
	name L2842330;
	phases ABC;
	latitude 12283859.182;
	longitude 1681417.14888742;
};

object node {
	name P827532;
	phases ABC;
	latitude 12264049.0418216;
	longitude 1671178.88148588;
};

object node {
	name L2822870;
	phases ABC;
	latitude 12280755.2536771;
	longitude 1668093.85620301;
};

object node {
	name L2954355;
	phases ABC;
	latitude 12277044.4619937;
	longitude 1666397.94016943;
};

object node {
	name M1027091;
	phases ABC;
	latitude 12294144.6435136;
	longitude 1664841.98035998;
};

object node {
	name L3104157;
	phases ABC;
	latitude 12262249.4601239;
	longitude 1669184.55956402;
};

object node {
	name M3729981;
	phases ABC;
	latitude 12289080.8488209;
	longitude 1664697.81754384;
};

object node {
	name L3029497;
	phases ABC;
	latitude 12277195.8091938;
	longitude 1677909.48194015;
};

object node {
	name M1108276;
	phases ABC;
	latitude 12266630.09936;
	longitude 1679999.9984221;
};

object node {
	name L2822877;
	phases ABC;
	latitude 12274330.1083271;
	longitude 1673774.5289763;
};

object node {
	name N1147858;
	phases ABC;
	latitude 12283118.0026073;
	longitude 1662957.23053422;
};

object node {
	name N1139263;
	phases ABC;
	latitude 12278801.3797553;
	longitude 1673655.35995219;
};

object node {
	name L3727711;
	phases ABC;
	latitude 12280151.5155646;
	longitude 1669833.94759663;
};

object node {
	name L3216337;
	phases ABC;
	latitude 12286529.7494265;
	longitude 1666187.02074523;
};

object node {
	name M1047786;
	phases ABC;
	latitude 12289607.0906134;
	longitude 1668612.40980349;
};

object node {
	name M1026327;
	phases ABC;
	latitude 12259881.4396417;
	longitude 1666556.70112958;
};

object node {
	name M1047486;
	phases ABC;
	latitude 12280409.2195008;
	longitude 1671735.5811344;
};

object node {
	name M1047386;
	phases ABC;
	latitude 12266801.4391361;
	longitude 1670422.96878118;
};

object node {
	name M1142798;
	phases ABC;
	latitude 12272058.757541;
	longitude 1685836.06524353;
};

object node {
	name L3198355;
	phases ABC;
	latitude 12271041.8886761;
	longitude 1681976.74031194;
};

object node {
	name 221-308718;
	phases ABC;
	latitude 12279343.4280118;
	longitude 1679631.67381375;
};

object node {
	name L2804245;
	phases ABC;
	latitude 12284049.7484002;
	longitude 1660510.14905994;
};

object node {
	name N1140827;
	phases ABC;
	latitude 12278455.280043;
	longitude 1665613.6258007;
};

object node {
	name N1138603;
	phases ABC;
	latitude 12273879.8391427;
	longitude 1674143.94312064;
};

object node {
	name L3160104;
	phases ABC;
	latitude 12277159.8504098;
	longitude 1668968.92973982;
};

object node {
	name M1069509;
	phases ABC;
	latitude 12284134.0686563;
	longitude 1674385.91841687;
};

object node {
	name L2897793;
	phases ABC;
	latitude 12284878.328241;
	longitude 1672926.52180751;
};

object node {
	name L2935550;
	phases ABC;
	latitude 12274937.8318477;
	longitude 1678457.71106066;
};

object node {
	name L3157718;
	phases ABC;
	latitude 12282953.1836632;
	longitude 1679336.33992548;
};

object node {
	name M1069417;
	phases ABC;
	latitude 12275198.9108879;
	longitude 1673856.39163237;
};

object node {
	name M1047733;
	phases ABC;
	latitude 12286710.3133947;
	longitude 1671616.40391829;
};

object node {
	name M1047633;
	phases ABC;
	latitude 12284060.7420642;
	longitude 1669556.47226837;
};

object node {
	name M1047340;
	phases ABC;
	latitude 12264418.2224939;
	longitude 1672026.49543867;
};

object node {
	name M1027000;
	phases ABC;
	latitude 12290950.4065826;
	longitude 1664921.53696805;
};

object node {
	name M1142860;
	phases ABC;
	latitude 12275785.1181205;
	longitude 1685812.30844351;
};

object node {
	name L2989565;
	phases ABC;
	latitude 12272283.4067572;
	longitude 1682055.58012001;
};

object node {
	name L3027124;
	phases ABC;
	latitude 12282739.970479;
	longitude 1687747.34895731;
};

object node {
	name N1140521;
	phases ABC;
	latitude 12281275.9044296;
	longitude 1668416.72340331;
};

object node {
	name L3029501;
	phases ABC;
	latitude 12274370.3269512;
	longitude 1672780.59361537;
};

object node {
	name L2897789;
	phases ABC;
	latitude 12289744.8186135;
	longitude 1674050.89019256;
};

object node {
	name M1026920;
	phases ABC;
	latitude 12286004.691378;
	longitude 1663580.1502148;
};

object node {
	name M1026820;
	phases ABC;
	latitude 12282972.7338712;
	longitude 1665647.86016873;
};

object node {
	name L2936213;
	phases ABC;
	latitude 12283251.1185114;
	longitude 1680270.35080635;
};

object node {
	name M1026320;
	phases ABC;
	latitude 12259127.488921;
	longitude 1665780.57056885;
};

object node {
	name N1134478;
	phases ABC;
	latitude 12284032.8073442;
	longitude 1674482.11707296;
};

object node {
	name L2710512;
	phases ABC;
	latitude 12292514.5010481;
	longitude 1671150.27092585;
};

object node {
	name N1142111;
	phases ABC;
	latitude 12269930.766755;
	longitude 1678467.07451667;
};

object node {
	name M1026667;
	phases ABC;
	latitude 12277019.9392416;
	longitude 1664354.33107952;
};

object node {
	name M1069564;
	phases ABC;
	latitude 12286409.8308344;
	longitude 1675615.88987401;
};

object node {
	name L3234149;
	phases ABC;
	latitude 12273169.7074301;
	longitude 1691184.30665651;
};

object node {
	name L3048221;
	phases ABC;
	latitude 12277419.78257;
	longitude 1664158.84128734;
};

object node {
	name M1209749;
	phases ABC;
	latitude 12273042.1702779;
	longitude 1692000.00048127;
};

object node {
	name L3104120;
	phases ABC;
	latitude 12266509.3492799;
	longitude 1673288.60820785;
};

object node {
	name M1047339;
	phases ABC;
	latitude 12264379.6013099;
	longitude 1671536.88827021;
};

object node {
	name M1069181;
	phases ABC;
	latitude 12268069.2207693;
	longitude 1673972.43950448;
};

object node {
	name M1026855;
	phases ABC;
	latitude 12284247.7695204;
	longitude 1667474.09863443;
};

object node {
	name M1069437;
	phases ABC;
	latitude 12277721.4693543;
	longitude 1674088.45870459;
};

object node {
	name M1069640;
	phases ABC;
	latitude 12289009.6111888;
	longitude 1674008.16891252;
};

object node {
	name M1125987;
	phases ABC;
	latitude 12278475.170219;
	longitude 1681852.81992782;
};

object node {
	name N1144663;
	phases ABC;
	latitude 12283429.8515676;
	longitude 1675852.22088223;
};

object node {
	name L3160117;
	phases ABC;
	latitude 12290241.774006;
	longitude 1670717.44250945;
};

object node {
	name L2970804;
	phases ABC;
	latitude 12287738.8271876;
	longitude 1685410.22050713;
};

object node {
	name L2991906;
	phases ABC;
	latitude 12270845.2683879;
	longitude 1677904.07931614;
};

object node {
	name 190-8581;
	phases ABC;
	latitude 12283007.2099032;
	longitude 1680565.27099862;
};

object node {
	name M1186067;
	phases ABC;
	latitude 12275074.5481358;
	longitude 1691101.30121643;
};

object node {
	name M1069532;
	phases ABC;
	latitude 12285448.8109295;
	longitude 1675459.38580987;
};

object node {
	name L2691947;
	phases ABC;
	latitude 12272253.5592052;
	longitude 1671454.16955014;
};

object node {
	name L2785517;
	phases ABC;
	latitude 12280286.5320127;
	longitude 1673342.0487199;
};

object node {
	name M1089118;
	phases ABC;
	latitude 12268725.4818899;
	longitude 1676496.02197083;
};

object node {
	name L2990826;
	phases ABC;
	latitude 12279603.163564;
	longitude 1678542.04770074;
};

object node {
	name M1108489;
	phases ABC;
	latitude 12281096.8314054;
	longitude 1681106.36898313;
};

object node {
	name L2748129;
	phases ABC;
	latitude 12267874.5583691;
	longitude 1673406.81057596;
};

object node {
	name L2860501;
	phases ABC;
	latitude 12288681.5379725;
	longitude 1670555.7692933;
};

object node {
	name L3232902;
	phases ABC;
	latitude 12280220.6642366;
	longitude 1681467.98843946;
};

object node {
	name M1010003;
	phases ABC;
	latitude 12293746.6433852;
	longitude 1661615.24166897;
};

object node {
	name L2691948;
	phases ABC;
	latitude 12275837.2479125;
	longitude 1669586.9833724;
};

object node {
	name L2822858;
	phases ABC;
	latitude 12284345.0413285;
	longitude 1661554.83795692;
};

object node {
	name N1139538;
	phases ABC;
	latitude 12265477.6283189;
	longitude 1672569.40385518;
};

object node {
	name M1069519;
	phases ABC;
	latitude 12284646.2980327;
	longitude 1675041.54056148;
};

object node {
	name L3254205;
	phases ABC;
	latitude 12264857.1580463;
	longitude 1668451.49844334;
};

object node {
	name L2673310;
	phases ABC;
...